%nproc=12
%mem=16GB
#P pm6   opt=loose freq int=(grid=99590)   

offspring-06

 0 1
O          1.965      0.953      0.207
C          2.446      2.124      0.881
C          3.127      1.706      2.205
O          3.988      0.630      1.815
C          2.069      1.195      3.206
C          1.085      2.334      3.534
O          1.055      3.347      2.535
C          1.214      3.020      1.137
C         -0.098      2.416      0.616
O         -1.207      3.114      1.213
O         -4.541      0.136      3.895
C         -3.173     -0.295      3.785
C         -2.315      0.900      3.313
C         -0.803      0.667      3.535
C         -0.449     -0.131      4.819
O         -1.401     -1.125      5.208
C         -2.796     -0.738      5.209
C         -3.513     -2.031      5.656
O         -4.527     -2.433      4.743
O          0.703     -0.927      4.549
O         -0.289      1.996      3.765
O         -2.592      0.945      1.918
O          2.799      0.882      4.393
H          3.179      2.622      0.206
H          3.744      2.519      2.649
H          4.348      0.189      2.625
H          1.564      0.279      2.811
H          1.352      2.918      4.451
H          1.372      4.050      0.727
H         -0.228      2.563     -0.472
H         -0.194      1.337      0.853
H         -0.974      3.335      2.170
H         -3.118     -1.138      3.054
H         -2.633      1.853      3.799
H         -0.341      0.207      2.630
H         -0.193      0.521      5.680
H         -2.933      0.088      5.939
H         -2.808     -2.890      5.657
H         -3.954     -1.909      6.662
H         -5.167     -1.688      4.585
H         -2.348      1.857      1.527
H         -4.854      0.436      3.005
H          2.365      0.115      4.861
H          0.448     -1.881      4.446
H          2.679      0.260      0.204
 