%nproc=12
%mem=16GB
#P pm6   opt=loose freq int=(grid=99590)   

offspring-02

 1 1
C         -4.645      1.165     -1.073
H         -5.617      0.660     -0.883
O         -4.820      2.400     -1.743
H         -4.960      2.250     -2.715
C         -3.532     -0.927     -1.589
H         -2.725     -1.200     -2.323
O         -3.846      0.407     -2.007
C         -3.816      1.452      0.207
H         -4.468      1.977      0.970
N         -2.722      2.382     -0.178
H         -2.959      2.960     -1.011
C         -1.509      2.508      0.406
O         -1.247      1.792      1.443
C         -0.543      3.500     -0.132
H          0.460      3.047     -0.297
H         -0.389      4.333      0.580
H         -0.828      3.961     -1.091
C         -3.366      0.107      0.836
H         -2.518      0.273      1.566
O         -4.419     -0.342      1.676
H         -5.173     -0.723      1.147
C         -2.989     -1.020     -0.149
H         -3.303     -1.997      0.308
O         -1.542     -1.044     -0.334
C         -4.770     -1.823     -1.782
H         -4.503     -2.895     -1.810
H         -5.314     -1.545     -2.706
O         -5.632     -1.574     -0.650
H         -6.412     -2.172     -0.681
C         -0.831     -1.680      0.717
H         -1.476     -2.284      1.390
C          0.651     -0.899      2.466
H          0.218     -1.710      3.109
O         -0.310     -0.533      1.456
C          0.299     -2.504      0.060
H          0.578     -2.094     -0.938
O         -0.329     -3.781     -0.112
H          0.305     -4.416     -0.529
C          1.535     -2.696      0.976
H          1.319     -3.526      1.708
O          2.604     -3.238      0.236
H          2.873     -2.625     -0.513
C          1.932     -1.431      1.777
H          2.718     -1.701      2.532
O          2.634     -0.379      1.091
C          0.826      0.355      3.325
H          1.711      0.292      3.989
H         -0.085      0.577      3.922
O          1.008      1.563      2.530
H          1.741      1.372      1.795
C          2.327     -0.034     -0.267
H          1.256     -0.185     -0.518
C          4.507     -0.888     -1.077
H          4.780     -1.331     -0.088
O          3.035     -0.907     -1.132
C          2.852      1.405     -0.456
H          2.623      1.762     -1.493
O          2.132      2.266      0.449
H          2.739      3.018      0.730
C          4.370      1.473     -0.169
H          4.605      1.209      0.892
O          4.786      2.822     -0.284
H          4.912      3.070     -1.242
C          5.082      0.544     -1.175
H          6.185      0.532     -1.007
O          4.817      1.183     -2.431
H          5.276      0.718     -3.165
C          4.894     -1.776     -2.240
H          5.979     -1.790     -2.408
H          4.403     -1.462     -3.174
H          4.591     -2.822     -2.073
H         -0.072      1.719      1.806
 