%nproc=12
%mem=16GB
#P pm6   opt=loose freq int=(grid=99590)   

offspring-02

 0 1
O          2.124      3.190      0.276
C          2.432      3.035      1.663
C          2.777      1.560      1.986
O          3.662      1.191      0.920
C          1.535      0.645      1.975
C          0.421      1.249      2.861
O          0.110      2.571      2.388
C          1.200      3.522      2.456
C          0.570      4.793      1.858
O         -0.077      5.534      2.889
O          0.490     -0.173      6.841
C         -0.238     -0.968      5.881
C         -0.994     -0.014      4.937
C         -1.180     -0.509      3.490
C         -0.515     -1.874      3.201
O          0.772     -1.953      3.805
C          0.873     -1.816      5.233
C          0.916     -3.257      5.795
O          0.341     -3.333      7.099
O         -1.327     -2.947      3.602
O         -0.738      0.478      2.540
O         -2.298      0.061      5.546
O          2.000     -0.580      2.556
H          3.318      3.682      1.877
H          3.325      1.456      2.952
H          3.866      0.227      0.976
H          1.163      0.464      0.940
H          0.627      1.269      3.949
H          1.461      3.670      3.529
H          1.337      5.489      1.466
H         -0.142      4.533      1.051
H         -0.879      5.040      3.218
H         -0.972     -1.605      6.445
H         -0.519      1.004      4.942
H         -2.273     -0.557      3.236
H         -0.296     -2.065      2.124
H          1.858     -1.296      5.348
H          0.284     -3.942      5.189
H          1.947     -3.649      5.812
H          0.882     -2.819      7.741
H         -2.768      0.872      5.255
H         -0.140      0.249      7.470
H          1.297     -1.267      2.493
H         -1.664     -2.862      4.522
H          2.734      2.623     -0.267
 