%nproc=12
%mem=16GB
#P pm6   opt=loose freq int=(grid=99590)   

initial-05

 1 1
C         -4.481      3.466     -0.382
H         -4.920      3.390      0.619
O         -4.750      4.714     -0.962
H         -5.693      4.894     -0.913
C         -4.524      2.230     -2.428
H         -4.800      3.098     -3.041
O         -5.011      2.396     -1.093
C         -2.954      3.362     -0.297
H         -2.720      2.458      0.269
N         -2.447      4.516      0.428
H         -2.863      5.398      0.152
C         -1.563      4.547      1.404
O         -0.942      3.536      1.856
C         -1.263      5.847      2.062
H         -0.214      6.092      1.880
H         -1.386      5.726      3.141
H         -1.896      6.660      1.708
C         -2.348      3.258     -1.697
H         -2.561      4.177     -2.259
O         -0.950      3.101     -1.557
H         -0.599      2.638     -2.342
C         -3.007      2.085     -2.408
H         -2.756      1.157     -1.879
O         -2.546      2.018     -3.750
C         -5.192      0.982     -2.974
H         -4.888      0.844     -4.013
H         -6.279      1.123     -2.952
O         -4.799     -0.176     -2.273
H         -5.224     -0.165     -1.412
C         -1.420      1.225     -3.922
H         -1.629      0.417     -4.646
C         -0.008     -0.238     -2.699
H         -0.245     -1.044     -3.412
O         -1.107      0.666     -2.663
C         -0.256      2.074     -4.393
H         -0.068      2.845     -3.635
O         -0.481      2.631     -5.667
H         -1.073      3.382     -5.578
C          0.970      1.178     -4.511
H          0.770      0.427     -5.292
O          2.120      1.923     -4.823
H          1.919      2.484     -5.579
C          1.255      0.462     -3.192
H          2.026     -0.302     -3.376
O          1.677      1.373     -2.210
H          2.354      1.929     -2.613
C          0.163     -0.791     -1.295
H         -0.699     -1.409     -1.047
H          0.226      0.032     -0.576
O          1.290     -1.649     -1.177
C          2.015     -1.571     -0.004
H          1.360     -1.616      0.886
C          3.709     -2.598      1.263
H          3.018     -2.536      2.119
O          2.945     -2.622      0.052
C          2.747     -0.239     -0.040
H          3.313     -0.202     -0.979
O          1.805      0.835     -0.011
H          1.048      0.656     -0.626
C          3.689     -0.091      1.143
H          3.085      0.011      2.052
O          4.451      1.081      1.023
H          5.225      0.856      0.492
C          4.571     -1.338      1.259
H          5.141     -1.275      2.191
O          5.520     -1.339      0.209
H          5.125     -1.772     -0.556
C          4.500     -3.882      1.336
H          3.825     -4.740      1.314
H          5.078     -3.914      2.262
H          5.194     -3.962      0.498
H         -0.876      2.622      1.308
 