%nproc=12
%mem=16GB
#P pm6   opt=loose freq int=(grid=99590)   

initial-05

 0 1
O          2.661      2.109     -0.056
C          2.764      2.782      1.222
C          2.872      1.758      2.371
O          4.068      0.978      2.209
C          1.619      0.848      2.368
C          0.271      1.661      2.255
O          0.310      2.703      1.263
C          1.452      3.570      1.443
C          1.301      4.725      0.434
O          2.491      5.522      0.544
O         -5.503     -0.428      4.053
C         -4.196      0.143      4.310
C         -3.182      0.210      3.135
C         -1.901      0.935      3.615
C         -2.227      2.317      4.241
O         -3.212      2.205      5.273
C         -4.437      1.588      4.863
C         -5.257      1.599      6.162
O         -4.534      0.878      7.190
O         -1.060      2.764      4.905
O         -1.048      1.038      2.472
O         -2.821     -1.119      2.731
O          1.668      0.084      3.580
H          3.630      3.467      1.225
H          2.898      2.316      3.329
H          4.006      0.293      2.935
H          1.708      0.189      1.487
H          0.056      2.101      3.254
H          1.459      3.985      2.471
H          1.184      4.296     -0.580
H          0.384      5.290      0.681
H          2.266      6.390      0.110
H         -3.711     -0.446      5.109
H         -3.628      0.787      2.299
H         -1.439      0.318      4.414
H         -2.564      3.022      3.447
H         -4.964      2.177      4.088
H         -5.365      2.635      6.518
H         -6.258      1.174      5.988
H         -4.709     -0.090      7.017
H         -3.503     -1.242      2.153
H         -5.753     -1.240      4.832
H          1.086     -0.708      3.393
H         -1.100      3.698      5.124
H          3.470      1.657     -0.308
 