%nproc=12
%mem=16GB
#P pm6   opt=loose freq int=(grid=99590)   

offspring-00

 0 1
O          1.964      0.956      0.206
C          2.445      2.126      0.881
C          3.127      1.707      2.203
O          3.988      0.630      1.811
C          2.070      1.193      3.204
C          1.086      2.332      3.534
O          1.056      3.347      2.536
C          1.213      3.022      1.138
C         -0.098      2.419      0.616
O         -1.207      3.117      1.212
O         -4.541      0.134      3.892
C         -3.173     -0.297      3.785
C         -2.314      0.898      3.312
C         -0.803      0.665      3.537
C         -0.450     -0.131      4.822
O         -1.403     -1.124      5.212
C         -2.798     -0.738      5.210
C         -3.515     -2.029      5.658
O         -4.528     -2.433      4.744
O          0.702     -0.928      4.554
O         -0.288      1.994      3.765
O         -2.589      0.941      1.917
O          2.802      0.880      4.391
H          3.178      2.625      0.206
H          3.745      2.518      2.648
H          4.348      0.189      2.621
H          1.565      0.279      2.809
H          1.352      2.916      4.452
H          1.373      4.052      0.730
H         -0.227      2.567     -0.472
H         -0.195      1.340      0.851
H         -0.975      3.338      2.170
H         -3.116     -1.141      3.055
H         -2.633      1.851      3.797
H         -0.340      0.203      2.633
H         -0.195      0.522      5.683
H         -2.936      0.090      5.939
H         -2.810     -2.889      5.661
H         -3.958     -1.907      6.663
H         -5.168     -1.687      4.584
H         -2.344      1.852      1.525
H         -4.853      0.433      3.001
H          2.369      0.113      4.859
H          0.446     -1.882      4.452
H          2.678      0.262      0.202
 