%nproc=12
%mem=16GB
#P pm6   opt=loose freq int=(grid=99590)   

initial-02

 0 1
O         -6.084     -0.909     -3.916
C         -7.325     -1.336     -3.304
C         -7.506     -0.678     -1.921
O         -7.582      0.749     -2.074
C         -6.319     -1.069     -1.006
C         -6.011     -2.616     -1.029
O         -6.015     -3.183     -2.353
C         -7.230     -2.862     -3.068
C         -7.188     -3.645     -4.393
O         -8.343     -3.238     -5.145
O         -1.391     -3.594     -0.832
C         -1.932     -2.855      0.290
C         -0.971     -2.479      1.452
C         -1.741     -1.620      2.485
C         -2.424     -0.398      1.818
O         -3.246     -0.795      0.716
C         -2.566     -1.548     -0.295
C         -3.690     -1.831     -1.302
O         -4.794     -2.467     -0.839
O         -3.327      0.147      2.761
O         -0.785     -1.239      3.478
O         -0.516     -3.670      2.108
O         -6.659     -0.624      0.314
H         -8.178     -1.102     -3.965
H         -8.440     -1.071     -1.471
H         -7.607      1.089     -1.134
H         -5.435     -0.527     -1.385
H         -6.776     -3.123     -0.401
H         -8.114     -3.184     -2.483
H         -6.246     -3.400     -4.921
H         -7.188     -4.726     -4.164
H         -8.453     -3.933     -5.846
H         -2.746     -3.452      0.739
H         -0.126     -1.883      1.050
H         -2.548     -2.249      2.917
H         -1.652      0.336      1.491
H         -1.767     -0.961     -0.787
H         -4.117     -0.879     -1.652
H         -3.299     -2.388     -2.168
H          0.124     -0.797      3.670
H         -0.024     -4.193      1.184
H         -2.024     -4.524     -1.054
H         -5.779     -0.560      0.785
H         -3.622      1.028      2.517
H         -6.091      0.017     -4.170
 