%nproc=12
%mem=16GB
#P pm6   opt=loose freq int=(grid=99590)   

initial-02

 1 1
C         -3.641      0.965     -1.281
H         -4.137      0.781     -0.321
O         -3.902      2.261     -1.748
H         -4.851      2.420     -1.740
C         -3.534     -0.057     -3.439
H         -3.793      0.863     -3.978
O         -4.104     -0.036     -2.127
C         -2.119      0.878     -1.112
H         -1.900     -0.075     -0.627
N         -1.683      1.960     -0.246
H         -2.101      2.859     -0.457
C         -0.859      1.906      0.781
O         -0.244      0.864      1.167
C         -0.628      3.137      1.583
H          0.425      3.416      1.492
H         -0.812      2.905      2.635
H         -1.256      3.971      1.274
C         -1.429      0.926     -2.476
H         -1.628      1.893     -2.955
O         -0.039      0.778     -2.267
H          0.369      0.402     -3.071
C         -2.018     -0.179     -3.340
H         -1.779     -1.152     -2.892
O         -1.477     -0.103     -4.651
C         -4.141     -1.254     -4.147
H         -3.772     -1.282     -5.174
H         -5.231     -1.134     -4.178
O         -3.766     -2.471     -3.543
H         -4.241     -2.554     -2.713
C         -0.092     -0.185     -4.697
H          0.231     -0.675     -5.632
C          1.720     -1.192     -3.543
H          2.018     -1.698     -4.476
O          0.317     -0.958     -3.587
C          0.511      1.201     -4.585
H          0.186      1.640     -3.634
O          0.180      2.019     -5.684
H         -0.720      2.335     -5.576
C          2.028      1.061     -4.579
H          2.337      0.642     -5.551
O          2.656      2.297     -4.352
H          2.283      2.941     -4.963
C          2.488      0.124     -3.463
H          3.557     -0.089     -3.612
O          2.262      0.701     -2.203
H          2.596      1.604     -2.242
C          1.988     -2.078     -2.339
H          3.044     -2.019     -2.081
H          1.740     -3.117     -2.578
O          1.290     -1.649     -1.177
C          2.015     -1.571     -0.004
H          1.360     -1.616      0.886
C          3.709     -2.598      1.263
H          3.018     -2.536      2.119
O          2.945     -2.622      0.052
C          2.747     -0.239     -0.040
H          3.313     -0.202     -0.979
O          1.805      0.835     -0.011
H          1.048      0.656     -0.626
C          3.689     -0.091      1.143
H          3.085      0.011      2.052
O          4.451      1.081      1.023
H          5.225      0.856      0.492
C          4.571     -1.338      1.259
H          5.141     -1.275      2.191
O          5.520     -1.339      0.209
H          5.125     -1.772     -0.556
C          4.500     -3.882      1.336
H          3.825     -4.740      1.314
H          5.078     -3.914      2.262
H          5.194     -3.962      0.498
H         -0.126      0.011      0.535
 