%nproc=12
%mem=16GB
#P pm6   opt=loose freq int=(grid=99590)   

initial-04

 0 1
O          2.661      2.109     -0.056
C          2.764      2.782      1.222
C          2.872      1.758      2.371
O          4.068      0.978      2.209
C          1.619      0.848      2.368
C          0.271      1.661      2.255
O          0.310      2.703      1.263
C          1.452      3.570      1.443
C          1.301      4.725      0.434
O          2.491      5.522      0.544
O         -3.356     -3.206      3.549
C         -2.857     -2.249      2.581
C         -2.227     -0.931      3.112
C         -1.686     -0.114      1.913
C         -0.725     -0.956      1.034
O         -1.332     -2.187      0.627
C         -1.802     -3.005      1.704
C         -2.400     -4.209      0.961
O         -3.436     -3.748      0.058
O         -0.520     -0.242     -0.170
O         -1.048      1.038      2.472
O         -3.231     -0.148      3.773
O          1.668      0.084      3.580
H          3.630      3.467      1.225
H          2.898      2.316      3.329
H          4.006      0.293      2.935
H          1.708      0.189      1.487
H          0.056      2.101      3.254
H          1.459      3.985      2.471
H          1.184      4.296     -0.580
H          0.384      5.290      0.681
H          2.266      6.390      0.110
H         -3.693     -1.953      1.923
H         -1.383     -1.175      3.790
H         -2.549      0.168      1.275
H          0.225     -1.147      1.585
H         -0.979     -3.346      2.360
H         -1.623     -4.677      0.338
H         -2.780     -4.952      1.679
H         -4.249     -3.616      0.622
H         -3.146     -0.531      4.585
H         -4.436     -3.516      3.295
H          1.086     -0.708      3.393
H          0.228     -0.577     -0.671
H          3.470      1.657     -0.308
 