%nproc=12
%mem=16GB
#P pm6   opt=loose freq int=(grid=99590)   

initial-04

 1 1
C         -2.406      0.091     -4.380
H         -1.652     -0.563     -4.834
O         -3.294      0.595     -5.310
H         -2.802      1.078     -5.980
C         -0.823      0.887     -2.739
H         -0.651      1.839     -2.227
O         -1.775      1.201     -3.753
C         -3.198     -0.683     -3.339
H         -3.698     -1.536     -3.800
N         -4.196      0.230     -2.803
H         -3.970      1.216     -2.852
C         -5.264     -0.133     -2.158
O         -5.479     -1.396     -2.039
C         -6.171      0.881     -1.569
H         -6.142      1.814     -2.133
H         -5.816      1.072     -0.551
H         -7.193      0.503     -1.528
C         -2.256     -1.201     -2.232
H         -2.884     -1.575     -1.417
O         -1.503     -2.284     -2.688
H         -0.728     -1.952     -3.172
C         -1.406     -0.049     -1.675
H         -0.580     -0.470     -1.090
O         -2.217      0.777     -0.845
C          0.528      0.476     -3.293
H          1.252      0.495     -2.469
H          0.825      1.218     -4.042
O          0.466     -0.820     -3.880
H          1.335     -1.081     -4.194
C         -1.557      1.412      0.198
H         -1.798      2.491      0.208
C          0.621      1.849      0.994
H          0.424      2.934      1.002
O         -0.174      1.237     -0.011
C         -1.990      0.791      1.516
H         -1.778     -0.285      1.459
O         -3.366      1.044      1.657
H         -3.639      0.693      2.510
C         -1.193      1.402      2.653
H         -1.477      2.460      2.743
O         -1.548      0.687      3.827
H         -1.435      1.246      4.599
C          0.304      1.294      2.382
H          0.846      1.908      3.121
O          0.732     -0.043      2.441
H          0.308     -0.449      3.205
C          2.076      1.622      0.668
H          2.703      2.014      1.478
H          2.319      2.179     -0.244
O          2.326      0.238      0.470
C          3.588     -0.138      0.956
H          3.659      0.074      2.031
C          4.773      0.415     -1.041
H          3.846      0.742     -1.533
O          4.632      0.583      0.372
C          3.789     -1.617      0.682
H          4.737     -1.903      1.149
O          2.733     -2.381      1.266
H          2.906     -3.300      1.016
C          3.864     -1.897     -0.811
H          2.909     -1.628     -1.272
O          4.048     -3.279     -1.014
H          4.998     -3.444     -0.961
C          4.975     -1.055     -1.421
H          4.931     -1.142     -2.515
O          6.177     -1.614     -0.923
H          6.927     -1.290     -1.425
C          5.922      1.300     -1.464
H          6.088      1.228     -2.543
H          6.836      1.018     -0.937
H          5.707      2.342     -1.219
H         -6.350     -1.613     -1.573
 