%nproc=12
%mem=16GB
#P pm6   opt=loose freq int=(grid=99590)   

initial-15

 1 1
C         -8.322      5.032      2.054
H         -7.375      5.397      1.644
O         -8.105      4.121      3.072
H         -7.455      3.473      2.784
C         -9.232      5.194     -0.137
H        -10.200      4.911     -0.561
O         -9.079      4.405      1.044
C         -9.119      6.213      2.637
H         -8.412      6.973      2.990
N         -9.901      5.752      3.784
H         -9.658      4.816      4.100
C        -10.745      6.453      4.498
O        -11.089      7.654      4.208
C        -11.359      5.873      5.717
H        -12.446      5.897      5.611
H        -11.101      6.507      6.570
H        -11.028      4.852      5.907
C         -9.987      6.845      1.546
H        -10.950      6.320      1.490
O        -10.192      8.190      1.947
H        -10.519      8.788      1.228
C         -9.305      6.696      0.193
H         -8.300      7.130      0.215
O        -10.094      7.313     -0.809
C         -8.148      4.884     -1.143
H         -7.335      5.612     -1.059
H         -8.572      4.920     -2.154
O         -7.681      3.578     -0.845
C        -11.475      7.120     -0.750
H        -11.721      7.240      0.315
C        -13.150      5.484     -1.136
H        -13.500      5.540     -0.091
O        -11.768      5.818     -1.193
C        -12.254      8.133     -1.574
H        -11.967      8.032     -2.629
O        -11.924      9.432     -1.103
H        -12.629     10.024     -1.399
C        -13.748      7.871     -1.483
H        -14.077      7.984     -0.443
O        -14.442      8.841     -2.230
H        -14.430      8.556     -3.152
C        -14.007      6.450     -1.958
H        -15.064      6.198     -1.785
O        -13.712      6.438     -3.338
H        -13.464      5.534     -3.585
C        -13.289      4.040     -1.587
H        -14.339      3.745     -1.505
H        -12.700      3.394     -0.927
O        -12.888      3.863     -2.937
H        -11.937      3.647     -2.938
C         -8.204      2.544     -1.584
H         -8.991      2.897     -2.273
C         -7.539      0.846     -3.139
H         -8.376      1.162     -3.780
O         -7.145      1.975     -2.338
C         -8.748      1.518     -0.611
H         -7.926      1.261      0.075
O         -9.820      2.095      0.100
H        -10.292      1.366      0.518
C         -9.180      0.259     -1.353
H        -10.041      0.509     -1.985
O         -9.627     -0.700     -0.426
H         -8.846     -1.184     -0.129
C         -8.049     -0.273     -2.234
H         -8.452     -1.072     -2.865
O         -7.053     -0.869     -1.428
H         -6.336     -0.250     -1.235
C         -6.357      0.462     -3.995
H         -5.512      0.148     -3.379
H         -6.050      1.306     -4.615
H         -6.626     -0.371     -4.649
H        -10.739      8.013      3.308
 