%nproc=12
%mem=16GB
#P pm6   opt=loose freq int=(grid=99590)   

initial-07

 1 1
C          3.962      3.463      4.162
H          4.231      2.674      4.873
O          4.837      4.532      4.204
H          4.822      4.912      5.087
C          1.608      3.012      4.410
H          0.696      3.616      4.438
O          2.667      3.970      4.434
C          3.992      2.893      2.749
H          4.984      2.501      2.520
N          3.669      3.991      1.848
H          3.282      4.816      2.291
C          3.662      3.923      0.550
O          4.144      2.870     -0.006
C          3.109      5.034     -0.262
H          2.819      5.885      0.354
H          2.231      4.654     -0.794
H          3.851      5.350     -1.000
C          2.960      1.761      2.646
H          2.903      1.425      1.608
O          3.457      0.747      3.493
H          2.927     -0.047      3.393
C          1.568      2.239      3.095
H          0.918      1.366      3.240
O          0.990      3.111      2.127
C          1.630      2.108      5.647
H          1.640      2.747      6.538
H          2.527      1.487      5.662
O          0.535      1.218      5.637
H         -0.251      1.674      5.944
C          0.613      2.568      0.920
H          1.194      3.005      0.088
C         -1.345      2.290     -0.436
H         -0.810      2.648     -1.333
O         -0.772      2.851      0.729
C          0.842      1.066      0.975
H          0.326      0.685      1.870
O          2.223      0.842      1.047
H          2.370     -0.085      0.832
C          0.250      0.396     -0.263
H          0.786      0.782     -1.141
O          0.493     -0.985     -0.244
H         -0.170     -1.420      0.317
C         -1.218      0.771     -0.420
H         -1.605      0.358     -1.362
O         -1.996      0.281      0.671
C         -2.769      2.828     -0.548
H         -3.276      2.344     -1.390
H         -2.716      3.897     -0.764
O         -3.557      2.707      0.626
H         -3.911      1.801      0.743
C         -3.370      0.246      0.530
H         -3.864      0.514      1.482
C         -5.161      1.208     -0.703
H         -5.655      1.491      0.241
O         -3.748      1.153     -0.479
C         -3.764     -1.153      0.112
H         -3.265     -1.374     -0.840
O         -3.341     -2.049      1.124
H         -3.840     -2.869      1.022
C         -5.272     -1.219     -0.081
H         -5.756     -1.004      0.880
O         -5.655     -2.523     -0.436
H         -5.529     -2.604     -1.390
C         -5.701     -0.171     -1.101
H         -6.798     -0.122     -1.114
O         -5.204     -0.631     -2.345
H         -5.680     -0.214     -3.065
C         -5.402      2.273     -1.746
H         -4.869      2.029     -2.668
H         -5.045      3.241     -1.391
H         -6.470      2.363     -1.961
H          3.754      2.724     -0.945
 