%nproc=12
%mem=16GB
#P pm6   opt=loose freq int=(grid=99590)   

initial-07

 0 1
O          2.661      2.109     -0.056
C          2.764      2.782      1.222
C          2.872      1.758      2.371
O          4.068      0.978      2.209
C          1.619      0.848      2.368
C          0.271      1.661      2.255
O          0.310      2.703      1.263
C          1.452      3.570      1.443
C          1.301      4.725      0.434
O          2.491      5.522      0.544
O         -5.004     -1.240      4.385
C         -3.573     -1.158      4.173
C         -3.031     -0.023      3.261
C         -1.483     -0.076      3.256
C         -0.905     -0.051      4.696
O         -1.485     -1.075      5.510
C         -2.915     -1.036      5.589
C         -3.223     -2.238      6.494
O         -2.686     -3.441      5.890
O          0.464     -0.395      4.607
O         -1.048      1.038      2.472
O         -3.491     -0.222      1.917
O          1.668      0.084      3.580
H          3.630      3.467      1.225
H          2.898      2.316      3.329
H          4.006      0.293      2.935
H          1.708      0.189      1.487
H          0.056      2.101      3.254
H          1.459      3.985      2.471
H          1.184      4.296     -0.580
H          0.384      5.290      0.681
H          2.266      6.390      0.110
H         -3.233     -2.109      3.725
H         -3.354      0.958      3.665
H         -1.176     -1.040      2.799
H         -1.065      0.954      5.151
H         -3.282     -0.109      6.068
H         -2.709     -2.112      7.459
H         -4.307     -2.316      6.673
H         -3.349     -3.717      5.197
H         -4.277      0.210      2.010
H         -5.386     -2.306      4.172
H          1.086     -0.708      3.393
H          0.946     -0.187      5.410
H          3.470      1.657     -0.308
 