%nproc=12
%mem=16GB
#P pm6   opt=loose freq int=(grid=99590)   

offspring-12

 0 1
O          1.964      0.956      0.206
C          2.445      2.126      0.881
C          3.127      1.707      2.203
O          3.988      0.630      1.811
C          2.070      1.193      3.204
C          1.086      2.332      3.534
O          1.056      3.347      2.536
C          1.213      3.022      1.138
C         -0.098      2.419      0.616
O         -1.207      3.117      1.212
O          1.815     -1.437      6.079
C          0.608     -1.218      5.329
C          0.334      0.301      5.267
C         -0.697      0.672      4.177
C         -0.623     -0.193      2.890
O         -0.232     -1.554      3.085
C          0.912     -1.798      3.937
C          1.029     -3.337      3.929
O          1.036     -3.888      5.241
O         -1.944     -0.345      2.375
O         -0.288      1.994      3.765
O         -0.215      0.567      6.553
O          2.802      0.880      4.391
H          3.178      2.625      0.206
H          3.745      2.518      2.648
H          4.348      0.189      2.621
H          1.565      0.279      2.809
H          1.352      2.916      4.452
H          1.373      4.052      0.730
H         -0.227      2.567     -0.472
H         -0.195      1.340      0.851
H         -0.975      3.338      2.170
H         -0.233     -1.754      5.832
H          1.274      0.884      5.122
H         -1.728      0.682      4.601
H         -0.018      0.274      2.084
H          1.801     -1.309      3.482
H          0.133     -3.796      3.459
H          1.939     -3.661      3.392
H          1.748     -3.463      5.792
H         -0.159      1.563      6.775
H          1.689     -1.087      6.998
H          2.369      0.113      4.859
H         -2.282     -1.261      2.554
H          2.678      0.262      0.202
 