%nproc=12
%mem=16GB
#P pm6   opt=loose freq int=(grid=99590)   

initial-19

 1 1
C         -8.477      2.119     -5.518
H         -9.012      1.213     -5.823
O         -9.297      3.230     -5.480
H         -9.694      3.357     -6.346
C         -6.436      1.404     -6.619
H         -5.627      1.921     -7.144
O         -7.433      2.408     -6.441
C         -7.878      1.926     -4.135
H         -8.661      1.700     -3.408
N         -7.226      3.186     -3.791
H         -7.099      3.832     -4.561
C         -6.663      3.468     -2.655
O         -6.832      2.657     -1.670
C         -5.846      4.698     -2.502
H         -6.196      5.266     -1.637
H         -5.889      5.327     -3.391
H         -4.808      4.398     -2.321
C         -6.872      0.754     -4.162
H         -6.339      0.745     -3.213
O         -7.544     -0.466     -4.254
H         -7.783     -0.641     -5.180
C         -5.832      0.953     -5.281
H         -5.303      0.000     -5.423
O         -4.895      1.975     -4.938
C         -6.877      0.293     -7.554
H         -5.997     -0.313     -7.806
H         -7.258      0.758     -8.469
O         -7.887     -0.508     -6.951
H         -8.141     -1.221     -7.542
C         -4.636      2.185     -3.601
H         -5.555      2.462     -3.054
C         -3.286      3.560     -2.179
H         -4.165      3.836     -1.575
O         -3.685      3.234     -3.499
C         -4.040      0.902     -3.036
H         -3.200      0.667     -3.704
O         -5.015     -0.102     -3.068
H         -4.587     -0.940     -2.848
C         -3.551      1.160     -1.611
H         -4.440      1.365     -1.002
O         -2.949      0.035     -0.994
C         -2.620      2.365     -1.509
H         -2.469      2.594     -0.446
O         -1.365      2.114     -2.129
H         -0.861      1.482     -1.578
C         -2.394      4.787     -2.271
H         -2.056      5.072     -1.270
H         -2.957      5.622     -2.693
O         -1.267      4.582     -3.123
H         -0.861      3.745     -2.832
C         -3.235     -0.264      0.343
H         -2.401     -0.021      1.003
C         -4.570     -2.137     -0.291
H         -4.367     -1.895     -1.341
O         -3.466     -1.643      0.505
C         -4.460      0.530      0.765
H         -4.636      0.322      1.829
O         -4.174      1.907      0.598
H         -5.009      2.388      0.627
C         -5.679      0.094     -0.029
H         -5.521      0.346     -1.083
O         -6.809      0.813      0.402
H         -7.159      0.355      1.177
C         -5.854     -1.419      0.116
H         -6.666     -1.744     -0.542
O         -6.270     -1.727      1.435
H         -5.491     -1.849      1.986
C         -4.617     -3.633     -0.102
H         -4.796     -3.896      0.943
H         -3.676     -4.086     -0.420
H         -5.425     -4.058     -0.702
H         -6.079      2.741     -0.985
 