%nproc=12
%mem=16GB
#P pm6   opt=loose freq int=(grid=99590)   

initial-17

 1 1
C          1.035      5.529     -2.358
H          2.035      5.958     -2.234
O          0.033      6.412     -2.006
H          0.163      6.687     -1.094
C          1.801      3.310     -1.740
H          1.355      2.468     -1.204
O          0.885      4.382     -1.528
C          0.821      5.125     -3.807
H          0.933      5.989     -4.465
N         -0.541      4.607     -3.892
H         -0.986      4.410     -3.003
C         -1.149      4.232     -4.977
O         -0.595      4.491     -6.109
C         -2.451      3.522     -4.906
H         -3.180      4.027     -5.545
H         -2.833      3.475     -3.887
H         -2.306      2.505     -5.286
C          1.861      4.055     -4.209
H          1.583      3.665     -5.186
O          3.125      4.632     -4.352
H          3.545      4.724     -3.481
C          1.847      2.879     -3.214
H          2.750      2.279     -3.389
O          0.687      2.066     -3.394
C          3.146      3.544     -1.077
H          3.709      2.602     -1.101
H          2.961      3.817     -0.033
O          3.866      4.579     -1.736
H          4.724      4.702     -1.323
C         -0.407      2.323     -2.597
H         -1.083      3.058     -3.070
C         -0.942      3.129     -0.406
H         -1.660      3.853     -0.824
O          0.065      2.835     -1.359
C         -1.128      1.002     -2.359
H         -0.351      0.324     -1.983
O         -1.658      0.551     -3.574
H         -1.981     -0.350     -3.441
C         -2.226      1.211     -1.315
H         -2.971      1.878     -1.766
O         -2.949      0.035     -0.994
C         -1.716      1.870     -0.037
H         -2.582      2.154      0.574
O         -0.872      0.997      0.704
H         -1.419      0.290      1.102
C         -0.257      3.797      0.775
H         -1.001      4.038      1.543
H          0.213      4.727      0.451
O          0.776      2.990      1.338
H          0.381      2.110      1.478
C         -3.235     -0.264      0.343
H         -2.401     -0.021      1.003
C         -4.570     -2.137     -0.291
H         -4.367     -1.895     -1.341
O         -3.466     -1.643      0.505
C         -4.460      0.530      0.765
H         -4.636      0.322      1.829
O         -4.174      1.907      0.598
H         -5.009      2.388      0.627
C         -5.679      0.094     -0.029
H         -5.521      0.346     -1.083
O         -6.809      0.813      0.402
H         -7.159      0.355      1.177
C         -5.854     -1.419      0.116
H         -6.666     -1.744     -0.542
O         -6.270     -1.727      1.435
H         -5.491     -1.849      1.986
C         -4.617     -3.633     -0.102
H         -4.796     -3.896      0.943
H         -3.676     -4.086     -0.420
H         -5.425     -4.058     -0.702
H         -0.918      3.852     -6.837
 