%nproc=12
%mem=16GB
#P pm6   opt=loose freq int=(grid=99590)   

initial-10

 1 1
C          2.008      3.756      3.768
H          1.799      3.121      4.635
O          2.752      4.873      4.097
H          2.281      5.376      4.768
C         -0.127      3.232      2.741
H         -0.837      3.789      2.123
O          0.792      4.223      3.194
C          2.780      2.967      2.723
H          3.718      2.595      3.141
N          3.055      3.894      1.630
H          2.528      4.759      1.653
C          3.767      3.638      0.574
O          4.446      2.545      0.544
C          3.792      4.587     -0.568
H          4.827      4.826     -0.824
H          3.252      5.506     -0.344
H          3.328      4.096     -1.430
C          1.935      1.763      2.250
H          2.434      1.318      1.392
O          1.887      0.780      3.240
H          1.208      1.008      3.897
C          0.538      2.223      1.793
H         -0.099      1.332      1.705
O          0.603      2.892      0.533
C         -0.954      2.636      3.866
H         -1.771      2.054      3.421
H         -1.384      3.465      4.439
O         -0.151      1.819      4.710
H         -0.689      1.429      5.403
C          0.087      2.241     -0.567
H          0.853      1.609     -1.052
C         -0.961      2.717     -2.667
H         -0.247      2.065     -3.196
O         -0.372      3.225     -1.482
C         -1.090      1.396     -0.096
H         -1.735      2.096      0.451
O         -0.611      0.381      0.741
H         -1.373     -0.053      1.147
C         -1.813      0.821     -1.314
H         -1.119      0.119     -1.794
O         -2.949      0.035     -0.994
C         -2.194      1.885     -2.339
H         -2.531      1.378     -3.253
O         -3.224      2.737     -1.855
H         -4.065      2.236     -1.832
C         -1.245      3.906     -3.570
H         -1.709      3.559     -4.499
H         -0.310      4.411     -3.821
O         -2.081      4.880     -2.946
H         -2.842      4.388     -2.587
C         -3.235     -0.264      0.343
H         -2.401     -0.021      1.003
C         -4.570     -2.137     -0.291
H         -4.367     -1.895     -1.341
O         -3.466     -1.643      0.505
C         -4.460      0.530      0.765
H         -4.636      0.322      1.829
O         -4.174      1.907      0.598
H         -5.009      2.388      0.627
C         -5.679      0.094     -0.029
H         -5.521      0.346     -1.083
O         -6.809      0.813      0.402
H         -7.159      0.355      1.177
C         -5.854     -1.419      0.116
H         -6.666     -1.744     -0.542
O         -6.270     -1.727      1.435
H         -5.491     -1.849      1.986
C         -4.617     -3.633     -0.102
H         -4.796     -3.896      0.943
H         -3.676     -4.086     -0.420
H         -5.425     -4.058     -0.702
H          4.641      2.254     -0.416
 