%nproc=12
%mem=16GB
#P pm6   opt=loose freq int=(grid=99590)   

initial-01

 1 1
C          5.163      5.405     -4.492
H          4.188      5.896     -4.372
O          5.461      5.187     -5.831
H          4.919      4.426     -6.142
C          6.261      3.452     -3.742
H          6.659      3.370     -4.761
O          5.066      4.236     -3.750
C          6.269      6.304     -3.912
H          5.882      6.768     -2.997
N          6.524      7.365     -4.892
H          6.123      7.188     -5.809
C          7.212      8.465     -4.705
O          7.887      8.677     -3.637
C          7.227      9.532     -5.733
H          6.865     10.456     -5.272
H          6.609      9.291     -6.597
H          8.258      9.710     -6.047
C          7.542      5.542     -3.540
H          8.124      5.334     -4.446
O          8.266      6.421     -2.683
H          9.082      6.007     -2.298
C          7.263      4.197     -2.874
H          6.843      4.333     -1.872
O          8.498      3.501     -2.839
C          5.879      2.055     -3.308
H          6.543      1.699     -2.511
H          5.970      1.377     -4.156
O          4.525      2.052     -2.904
C          9.059      3.111     -4.049
H          8.195      2.865     -4.684
C         10.374      1.419     -5.033
H          9.531      1.137     -5.688
O          9.862      1.978     -3.833
C          9.899      4.188     -4.719
H         10.773      4.404     -4.092
O          9.111      5.360     -4.875
H          9.523      5.879     -5.579
C         10.409      3.684     -6.061
H          9.557      3.458     -6.713
O         11.142      4.701     -6.700
H         12.036      4.677     -6.336
C         11.230      2.424     -5.816
H         11.492      1.968     -6.783
O         12.385      2.859     -5.137
H         12.773      2.100     -4.677
C         11.094      0.134     -4.684
H         11.316     -0.399     -5.617
H         10.425     -0.484     -4.074
O         12.287      0.438     -3.976
H         12.769     -0.371     -3.792
C          3.847      3.281     -2.953
H          4.481      4.089     -2.584
C          1.741      2.291     -2.444
H          2.203      1.298     -2.358
O          2.719      3.280     -2.124
C          3.401      3.549     -4.386
H          2.875      4.512     -4.380
O          4.497      3.609     -5.292
H          4.110      3.452     -6.164
C          2.437      2.460     -4.835
H          2.960      1.500     -4.808
O          2.061      2.682     -6.178
H          1.345      3.330     -6.159
C          1.248      2.421     -3.889
H          0.632      1.542     -4.126
O          0.526      3.614     -4.146
H         -0.345      3.561     -3.748
C          0.633      2.434     -1.427
H          0.207      3.440     -1.464
H          1.023      2.274     -0.421
H         -0.157      1.699     -1.610
H          8.081      7.807     -3.113
 