%nproc=12
%mem=16GB
#P pm6   opt=loose freq int=(grid=99590)   

initial-01

 0 1
O          2.661      2.109     -0.056
C          2.764      2.782      1.222
C          2.872      1.758      2.371
O          4.068      0.978      2.209
C          1.619      0.848      2.368
C          0.271      1.661      2.255
O          0.310      2.703      1.263
C          1.452      3.570      1.443
C          1.301      4.725      0.434
O          2.491      5.522      0.544
O         -4.447     -2.316      1.171
C         -3.252     -1.947      1.902
C         -2.683     -0.515      1.701
C         -1.470     -0.317      2.643
C         -1.830     -0.647      4.116
O         -2.408     -1.951      4.233
C         -3.567     -2.165      3.420
C         -3.930     -3.621      3.748
O         -2.805     -4.478      3.432
O         -0.616     -0.726      4.839
O         -1.048      1.038      2.472
O         -2.231     -0.359      0.348
O          1.668      0.084      3.580
H          3.630      3.467      1.225
H          2.898      2.316      3.329
H          4.006      0.293      2.935
H          1.708      0.189      1.487
H          0.056      2.101      3.254
H          1.459      3.985      2.471
H          1.184      4.296     -0.580
H          0.384      5.290      0.681
H          2.266      6.390      0.110
H         -2.444     -2.646      1.622
H         -3.463      0.230      1.961
H         -0.678     -1.032      2.334
H         -2.519      0.129      4.520
H         -4.405     -1.502      3.704
H         -4.107     -3.719      4.830
H         -4.841     -3.921      3.207
H         -2.846     -4.627      2.446
H         -3.024     -0.107      0.000
H         -4.291     -3.310      0.611
H          1.086     -0.708      3.393
H         -0.755     -0.702      5.788
H          3.470      1.657     -0.308
 