%nproc=12
%mem=16GB
#P pm6   opt=loose freq int=(grid=99590)   

initial-06

 0 1
O          2.661      2.109     -0.056
C          2.764      2.782      1.222
C          2.872      1.758      2.371
O          4.068      0.978      2.209
C          1.619      0.848      2.368
C          0.271      1.661      2.255
O          0.310      2.703      1.263
C          1.452      3.570      1.443
C          1.301      4.725      0.434
O          2.491      5.522      0.544
O         -3.054      1.850     -1.979
C         -3.035      1.149     -0.711
C         -1.868      1.445      0.272
C         -2.104      0.659      1.585
C         -3.509      0.944      2.178
O         -4.540      0.717      1.211
C         -4.395      1.463     -0.002
C         -5.611      0.999     -0.817
O         -5.554     -0.439     -0.984
O         -3.745     -0.019      3.186
O         -1.048      1.038      2.472
O         -0.630      1.002     -0.300
O          1.668      0.084      3.580
H          3.630      3.467      1.225
H          2.898      2.316      3.329
H          4.006      0.293      2.935
H          1.708      0.189      1.487
H          0.056      2.101      3.254
H          1.459      3.985      2.471
H          1.184      4.296     -0.580
H          0.384      5.290      0.681
H          2.266      6.390      0.110
H         -3.004      0.064     -0.915
H         -1.849      2.530      0.502
H         -2.066     -0.424      1.346
H         -3.553      1.988      2.564
H         -4.459      2.555      0.168
H         -6.533      1.216     -0.256
H         -5.649      1.525     -1.784
H         -4.915     -0.600     -1.734
H         -0.450      1.756     -0.761
H         -3.179      1.109     -2.852
H          1.086     -0.708      3.393
H         -4.484      0.218      3.752
H          3.470      1.657     -0.308
 