%nproc=12
%mem=16GB
#P pm6   opt=loose freq int=(grid=99590)   

initial-08

 0 1
O          3.185     -0.561      0.901
C          3.472     -0.369      2.307
C          3.308     -1.694      3.082
O          4.251     -2.660      2.588
C          1.857     -2.209      2.918
C          0.776     -1.089      3.175
O          1.087      0.166      2.541
C          2.421      0.615      2.871
C          2.579      2.025      2.272
O          3.939      2.420      2.508
O         -1.854     -4.438      2.231
C         -1.436     -3.487      1.222
C         -0.205     -2.589      1.525
C          0.109     -1.726      0.278
C          0.268     -2.597     -0.996
O         -0.865     -3.450     -1.191
C         -1.164     -4.307     -0.084
C         -2.406     -5.061     -0.583
O         -3.448     -4.106     -0.904
O          0.256     -1.723     -2.108
O          1.295     -0.990      0.591
O         -0.506     -1.709      2.617
O          1.707     -3.300      3.836
H          4.490      0.038      2.438
H          3.489     -1.489      4.157
H          4.012     -3.498      3.078
H          1.761     -2.560      1.876
H          0.693     -0.944      4.275
H          2.545      0.672      3.970
H          2.346      1.980      1.190
H          1.849      2.698      2.757
H          3.953      3.408      2.377
H         -2.279     -2.803      1.019
H          0.672     -3.232      1.745
H         -0.755     -1.051      0.105
H          1.206     -3.195     -0.931
H         -0.350     -5.029      0.118
H         -2.163     -5.590     -1.517
H         -2.737     -5.795      0.168
H         -3.871     -3.863     -0.033
H          1.415     -0.352     -0.167
H         -2.979     -4.331      2.452
H          0.933     -3.819      3.474
H          0.572     -2.148     -2.909
H          3.844     -1.106      0.452
 