%nproc=12
%mem=16GB
#P pm6   opt=loose freq int=(grid=99590)   

offspring-04

 0 1
O          1.666      0.167      1.033
C          2.184      1.504      1.056
C          3.043      1.697      2.327
O          3.887      0.539      2.342
C          2.141      1.703      3.580
C          1.166      2.894      3.498
O          0.970      3.362      2.169
C          0.961      2.448      1.051
C         -0.382      1.705      1.026
O         -1.433      2.618      1.391
O          0.131      7.281      3.162
C         -0.724      6.360      3.862
C         -0.473      4.938      3.314
C         -1.048      3.840      4.238
C         -0.960      4.155      5.756
O         -1.068      5.535      6.110
C         -0.297      6.483      5.334
C         -0.673      7.838      5.969
O         -1.170      8.767      5.012
O         -2.112      3.603      6.393
O         -0.155      2.725      4.033
O         -1.190      4.950      2.084
O          3.027      1.931      4.677
H          2.807      1.639      0.141
H          3.682      2.607      2.284
H          4.362      0.492      3.210
H          1.624      0.720      3.697
H          1.525      3.816      4.021
H          1.027      3.188      0.213
H         -0.653      1.358      0.012
H         -0.407      0.844      1.724
H         -1.089      3.237      2.113
H         -1.787      6.666      3.707
H          0.611      4.753      3.125
H         -2.090      3.583      3.937
H         -0.074      3.698      6.245
H          0.782      6.247      5.463
H         -1.520      7.718      6.679
H          0.193      8.282      6.494
H         -0.519      8.879      4.267
H         -0.872      4.199      1.469
H         -0.088      7.249      2.197
H          2.690      1.452      5.486
H         -2.743      4.325      6.648
H          2.400     -0.473      1.245
 