%nproc=12
%mem=16GB
#P pm6   opt=loose freq int=(grid=99590)   

initial-09

 1 1
C         -5.324     -1.870      4.020
H         -5.726     -1.811      5.038
O         -5.858     -2.923      3.304
H         -5.679     -3.742      3.774
C         -3.171     -1.056      4.750
H         -2.134     -1.242      4.458
O         -3.915     -2.058      4.061
C         -5.632     -0.584      3.271
H         -6.709     -0.423      3.219
N         -5.102     -0.742      1.924
H         -4.330     -1.389      1.823
C         -5.454     -0.025      0.900
O         -6.381      0.850      1.082
C         -4.785     -0.202     -0.412
H         -4.421     -1.223     -0.535
H         -3.932      0.482     -0.428
H         -5.465      0.051     -1.225
C         -4.986      0.619      3.992
H         -5.065      1.481      3.323
O         -5.695      0.942      5.150
H         -5.401      0.367      5.875
C         -3.493      0.352      4.237
H         -3.118      1.083      4.963
O         -2.783      0.481      3.008
C         -3.202     -1.218      6.257
H         -2.423     -0.574      6.685
H         -2.965     -2.262      6.490
O         -4.481     -0.875      6.782
H         -4.476     -0.949      7.739
C         -1.605     -0.247      2.917
H         -1.244     -0.525      3.923
C          0.611     -0.056      2.128
H          1.010     -0.315      3.123
O         -0.652      0.574      2.281
C         -1.858     -1.509      2.109
H         -2.256     -1.203      1.133
O         -2.787     -2.280      2.832
H         -2.919     -3.101      2.349
C         -0.553     -2.256      1.909
H         -0.212     -2.621      2.888
O         -0.837     -3.343      1.040
H         -0.220     -4.061      1.199
C          0.507     -1.340      1.305
H          1.485     -1.848      1.349
O          0.184     -1.000     -0.020
H         -0.125     -1.802     -0.456
C          1.559      0.908      1.460
H          2.214      1.364      2.211
H          0.971      1.708      0.996
O          2.326      0.238      0.470
C          3.588     -0.138      0.956
H          3.659      0.074      2.031
C          4.773      0.415     -1.041
H          3.846      0.742     -1.533
O          4.632      0.583      0.372
C          3.789     -1.617      0.682
H          4.737     -1.903      1.149
O          2.733     -2.381      1.266
H          2.906     -3.300      1.016
C          3.864     -1.897     -0.811
H          2.909     -1.628     -1.272
O          4.048     -3.279     -1.014
H          4.998     -3.444     -0.961
C          4.975     -1.055     -1.421
H          4.931     -1.142     -2.515
O          6.177     -1.614     -0.923
H          6.927     -1.290     -1.425
C          5.922      1.300     -1.464
H          6.088      1.228     -2.543
H          6.836      1.018     -0.937
H          5.707      2.342     -1.219
H         -6.644      1.339      0.238
 