%nproc=12
%mem=16GB
#P pm6   opt=loose int=(grid=99590)   

initial-00

 1 1
C         -6.896     -0.797      5.832
H         -7.725     -0.800      5.117
O         -7.279     -1.222      7.089
H         -7.990     -0.658      7.407
C         -5.885      1.152      4.798
H         -5.309      2.004      5.170
O         -6.376      0.520      5.979
C         -5.784     -1.710      5.343
H         -6.141     -2.736      5.246
N         -4.729     -1.634      6.349
H         -4.799     -0.845      6.982
C         -3.629     -2.321      6.354
O         -3.521     -3.320      5.548
C         -2.516     -1.954      7.262
H         -1.678     -1.643      6.630
H         -2.217     -2.827      7.847
H         -2.785     -1.138      7.932
C         -5.273     -1.216      3.972
H         -4.377     -1.783      3.721
O         -6.212     -1.483      2.974
H         -6.887     -0.785      2.965
C         -4.876      0.271      4.046
H         -4.772      0.642      3.018
O         -3.639      0.439      4.739
C         -6.991      1.748      3.948
H         -6.532      2.399      3.193
H         -7.624      2.359      4.600
O         -7.764      0.725      3.330
H         -8.441      1.112      2.771
C         -2.495      0.498      3.972
H         -1.595      0.527      4.612
C         -1.425      1.891      2.354
H         -0.506      1.912      2.966
O         -2.550      1.685      3.186
C         -2.437     -0.706      3.050
H         -3.352     -0.710      2.438
O         -2.338     -1.861      3.834
H         -2.076     -2.578      3.246
C         -1.221     -0.573      2.133
H         -0.332     -0.546      2.781
O         -1.123     -1.711      1.324
H         -1.276     -1.477      0.393
C         -1.254      0.740      1.363
H         -0.295      0.860      0.841
O         -2.309      0.686      0.405
C         -1.560      3.286      1.754
H         -0.755      3.461      1.033
H         -1.449      4.018      2.556
O         -2.822      3.556      1.156
H         -2.892      3.132      0.278
C         -3.559      0.242      0.877
H         -3.703      0.568      1.912
C         -3.619     -1.845     -0.344
H         -2.703     -1.603     -0.897
O         -3.575     -1.162      0.924
C         -4.692      0.781      0.015
H         -5.632      0.528      0.523
O         -4.532      2.180     -0.068
H         -5.191      2.508     -0.691
C         -4.702      0.145     -1.367
H         -3.777      0.414     -1.886
O         -5.761      0.670     -2.128
H         -6.564      0.211     -1.853
C         -4.779     -1.366     -1.214
H         -4.673     -1.830     -2.205
O         -6.053     -1.639     -0.665
H         -6.305     -2.548     -0.838
C         -3.669     -3.320     -0.026
H         -3.685     -3.910     -0.946
H         -4.560     -3.550      0.563
H         -2.798     -3.624      0.560
H         -2.546     -3.543      5.367
 