%nproc=12
%mem=16GB
#P pm6   opt=loose freq int=(grid=99590)   

initial-00

 1 1
C          0.573     -2.158      6.002
H         -0.020     -3.071      5.878
O          1.722     -2.368      6.738
H          1.483     -2.724      7.598
C         -1.414     -0.766      6.085
H         -1.683      0.155      6.611
O         -0.185     -1.167      6.689
C          0.975     -1.611      4.643
H          1.583     -2.335      4.098
N          1.747     -0.401      4.908
H          1.641     -0.024      5.843
C          2.342      0.334      4.020
O          2.474     -0.126      2.825
C          2.848      1.682      4.375
H          2.268      2.404      3.790
H          3.902      1.762      4.099
H          2.728      1.898      5.436
C         -0.291     -1.286      3.819
H          0.018     -0.750      2.922
O         -0.912     -2.462      3.392
H         -1.474     -2.811      4.103
C         -1.231     -0.360      4.615
H         -2.209     -0.368      4.116
O         -0.727      0.975      4.651
C         -2.547     -1.736      6.358
H         -3.489     -1.257      6.062
H         -2.574     -1.927      7.437
O         -2.355     -2.954      5.647
H         -3.092     -3.549      5.803
C         -0.919      1.748      3.525
H         -0.622      2.794      3.714
C         -2.656      2.472      2.055
H         -2.360      3.525      2.209
O         -2.303      1.704      3.189
C         -0.111      1.179      2.373
H         -0.421      0.134      2.223
O          1.248      1.269      2.698
H          1.742      1.122      1.884
C         -0.415      1.980      1.108
H         -0.116      3.021      1.307
O          0.376      1.505      0.056
H         -0.182      1.091     -0.624
C         -1.908      1.993      0.811
H         -2.092      2.701     -0.008
O         -2.309      0.686      0.405
C         -4.178      2.473      1.971
H         -4.500      2.985      1.057
H         -4.569      3.037      2.820
O         -4.779      1.187      2.051
H         -4.696      0.707      1.203
C         -3.559      0.242      0.877
H         -3.703      0.568      1.912
C         -3.619     -1.845     -0.344
H         -2.703     -1.603     -0.897
O         -3.575     -1.162      0.924
C         -4.692      0.781      0.015
H         -5.632      0.528      0.523
O         -4.532      2.180     -0.068
H         -5.191      2.508     -0.691
C         -4.702      0.145     -1.367
H         -3.777      0.414     -1.886
O         -5.761      0.670     -2.128
H         -6.564      0.211     -1.853
C         -4.779     -1.366     -1.214
H         -4.673     -1.830     -2.205
O         -6.053     -1.639     -0.665
H         -6.305     -2.548     -0.838
C         -3.669     -3.320     -0.026
H         -3.685     -3.910     -0.946
H         -4.560     -3.550      0.563
H         -2.798     -3.624      0.560
H          2.602      0.625      2.153
 