%nproc=12
%mem=16GB
#P PBE1PBE STO-3G opt=loose freq int=(grid=99590) EmpiricalDispersion=GD3 

initial-00

 0 1
O          3.185     -0.561      0.901
C          3.472     -0.369      2.307
C          3.308     -1.694      3.082
O          4.251     -2.660      2.588
C          1.857     -2.209      2.918
C          0.776     -1.089      3.175
O          1.087      0.166      2.541
C          2.421      0.615      2.871
C          2.579      2.025      2.272
O          3.939      2.420      2.508
O          1.963     -1.960      0.811
C          0.602     -2.376      0.542
C         -0.554     -1.565      1.190
C         -1.908     -2.130      0.692
C         -1.971     -2.181     -0.857
O         -0.850     -2.884     -1.403
C          0.427     -2.365     -1.014
C          1.396     -3.318     -1.728
O          1.140     -4.676     -1.293
O         -3.093     -2.967     -1.207
O         -2.921     -1.292      1.254
O         -0.506     -1.709      2.617
O          1.707     -3.300      3.836
H          4.490      0.038      2.438
H          3.489     -1.489      4.157
H          4.012     -3.498      3.078
H          1.761     -2.560      1.876
H          0.693     -0.944      4.275
H          2.545      0.672      3.970
H          2.346      1.980      1.190
H          1.849      2.698      2.757
H          3.953      3.408      2.377
H          0.483     -3.419      0.886
H         -0.474     -0.502      0.881
H         -1.995     -3.175      1.056
H         -2.028     -1.147     -1.269
H          0.587     -1.333     -1.378
H          1.204     -3.292     -2.812
H          2.439     -3.016     -1.542
H          1.601     -4.771     -0.413
H         -3.785     -1.737      1.028
H          2.598     -2.851      1.172
H          0.933     -3.819      3.474
H         -3.336     -2.866     -2.131
H          3.844     -1.106      0.452
 