%nproc=12
%mem=16GB
#P pm6   opt=loose freq int=(grid=99590)   

initial-00

 0 1
O          3.185     -0.561      0.901
C          3.472     -0.369      2.307
C          3.308     -1.694      3.082
O          4.251     -2.660      2.588
C          1.857     -2.209      2.918
C          0.776     -1.089      3.175
O          1.087      0.166      2.541
C          2.421      0.615      2.871
C          2.579      2.025      2.272
O          3.939      2.420      2.508
O         -3.013     -2.320      4.275
C         -2.287     -3.198      3.381
C         -0.756     -2.983      3.226
C         -0.183     -4.084      2.301
C         -0.569     -5.504      2.794
O         -1.983     -5.626      2.980
C         -2.553     -4.661      3.871
C         -4.042     -5.035      3.846
O         -4.531     -4.960      2.484
O         -0.264     -6.409      1.750
O          1.232     -3.881      2.268
O         -0.506     -1.709      2.617
O          1.707     -3.300      3.836
H          4.490      0.038      2.438
H          3.489     -1.489      4.157
H          4.012     -3.498      3.078
H          1.761     -2.560      1.876
H          0.693     -0.944      4.275
H          2.545      0.672      3.970
H          2.346      1.980      1.190
H          1.849      2.698      2.757
H          3.953      3.408      2.377
H         -2.720     -3.098      2.369
H         -0.272     -3.064      4.222
H         -0.636     -3.954      1.296
H         -0.024     -5.739      3.737
H         -2.163     -4.762      4.902
H         -4.162     -6.081      4.168
H         -4.613     -4.383      4.525
H         -4.710     -3.993      2.313
H          1.572     -4.516      1.577
H         -3.930     -1.865      3.745
H          0.933     -3.819      3.474
H         -0.260     -7.322      2.049
H          3.844     -1.106      0.452
 