%nproc=12
%mem=16GB
#P pm6   opt=loose freq int=(grid=99590)   

initial-18

 1 1
C         -1.535      0.351     -1.623
H         -2.446     -0.146     -1.272
O         -0.848     -0.446     -2.521
H         -0.771     -1.334     -2.162
C         -1.335      1.318      0.540
H         -0.564      1.938      1.007
O         -0.687      0.635     -0.534
C         -1.908      1.660     -2.341
H         -2.899      1.542     -2.793
N         -0.946      1.919     -3.412
H         -0.331      1.134     -3.611
C         -0.901      2.964     -4.199
O         -1.660      3.988     -4.059
C          0.058      3.011     -5.330
H          0.695      3.891     -5.216
H         -0.507      3.136     -6.258
H          0.673      2.114     -5.393
C         -1.985      2.806     -1.328
H         -0.989      3.250     -1.197
O         -2.869      3.761     -1.892
H         -3.212      4.434     -1.250
C         -2.430      2.270      0.026
H         -3.384      1.739     -0.061
O         -2.534      3.337      0.951
C         -1.864      0.342      1.566
H         -2.957      0.379      1.594
H         -1.460      0.600      2.552
O         -1.419     -0.944      1.166
C         -3.816      3.733      1.335
H         -3.812      4.825      1.209
C         -5.274      3.775      3.207
H         -5.365      4.874      3.160
O         -4.012      3.380      2.683
C         -4.912      3.120      0.477
H         -4.877      2.028      0.579
O         -4.673      3.491     -0.873
H         -5.509      3.374     -1.346
C         -6.284      3.575      0.946
H         -6.366      4.663      0.839
O         -7.274      3.017      0.115
H         -7.442      2.121      0.432
C         -6.437      3.184      2.407
H         -7.372      3.612      2.800
O         -6.486      1.774      2.432
H         -6.174      1.477      3.301
C         -5.302      3.378      4.674
H         -6.246      3.716      5.111
H         -4.483      3.877      5.202
O         -5.219      1.972      4.846
H         -4.275      1.739      4.924
C         -0.843     -1.734      2.132
H         -0.971     -2.807      1.905
C          1.275     -2.159      3.169
H          1.096     -3.232      3.002
O          0.542     -1.429      2.169
C         -1.482     -1.375      3.457
H         -1.366     -0.287      3.584
O         -2.848     -1.720      3.408
H         -3.164     -1.713      4.319
C         -0.766     -2.081      4.602
H         -0.942     -3.160      4.506
O         -1.338     -1.689      5.826
H         -0.891     -0.875      6.093
C          0.739     -1.812      4.555
H          1.226     -2.464      5.289
O          1.002     -0.486      4.967
H          1.080      0.110      4.211
C          2.740     -1.850      2.976
H          2.941     -0.788      3.133
H          3.053     -2.126      1.967
H          3.338     -2.417      3.693
H         -2.251      3.992     -3.214
 